data_Graphene
_chemical_name_mineral 'Graphene'
_chemical_formula_sum 'C2'
_space_group_IT_number 194
_symmetry_space_group_name_H-M 'P 63/m m c'
_cell_length_a 2.456
_cell_length_b 2.456
_cell_length_c 6.696
_cell_angle_alpha 90
_cell_angle_beta 90
_cell_angle_gamma 120
loop_
_atom_site_label
_atom_site_type_symbol
_atom_site_fract_x
_atom_site_fract_y
_atom_site_fract_z
_atom_site_occupancy
C1 C 0.0 0.0 0.25 1.0
C2 C 0.33333 0.66667 0.25 1.0
