data_Iron
_chemical_name_mineral 'Iron'
_chemical_formula_sum 'Fe'
_space_group_IT_number 229
_symmetry_space_group_name_H-M 'I m -3 m'
_cell_length_a 2.8665
_cell_length_b 2.8665
_cell_length_c 2.8665
_cell_angle_alpha 90
_cell_angle_beta 90
_cell_angle_gamma 90
loop_
_atom_site_label
_atom_site_type_symbol
_atom_site_fract_x
_atom_site_fract_y
_atom_site_fract_z
_atom_site_occupancy
Fe1 Fe 0.0 0.0 0.0 1.0
